New Loadshape.loadshape_138236B0 npts=24 sinterval=3600 mult=(file=./loadshape\014\138236B0.csv)
New Loadshape.loadshape_138237B0 npts=24 sinterval=3600 mult=(file=./loadshape\014\138237B0.csv)
New Loadshape.loadshape_138258C0 npts=24 sinterval=3600 mult=(file=./loadshape\014\138258C0.csv)
New Loadshape.loadshape_138259C0 npts=24 sinterval=3600 mult=(file=./loadshape\014\138259C0.csv)
New Loadshape.loadshape_138260A0 npts=24 sinterval=3600 mult=(file=./loadshape\014\138260A0.csv)
New Loadshape.loadshape_138262A0 npts=24 sinterval=3600 mult=(file=./loadshape\014\138262A0.csv)
New Loadshape.loadshape_138264B0 npts=24 sinterval=3600 mult=(file=./loadshape\014\138264B0.csv)
New Loadshape.loadshape_138265A0 npts=24 sinterval=3600 mult=(file=./loadshape\014\138265A0.csv)
New Loadshape.loadshape_138294B0 npts=24 sinterval=3600 mult=(file=./loadshape\014\138294B0.csv)
New Loadshape.loadshape_138313A0 npts=24 sinterval=3600 mult=(file=./loadshape\014\138313A0.csv)
New Loadshape.loadshape_138342C0 npts=24 sinterval=3600 mult=(file=./loadshape\014\138342C0.csv)
New Loadshape.loadshape_138343C0 npts=24 sinterval=3600 mult=(file=./loadshape\014\138343C0.csv)
New Loadshape.loadshape_138346C0 npts=24 sinterval=3600 mult=(file=./loadshape\014\138346C0.csv)
New Loadshape.loadshape_138371C0 npts=24 sinterval=3600 mult=(file=./loadshape\014\138371C0.csv)
New Loadshape.loadshape_138372C0 npts=24 sinterval=3600 mult=(file=./loadshape\014\138372C0.csv)
New Loadshape.loadshape_138373C0 npts=24 sinterval=3600 mult=(file=./loadshape\014\138373C0.csv)
New Loadshape.loadshape_138374C0 npts=24 sinterval=3600 mult=(file=./loadshape\014\138374C0.csv)
New Loadshape.loadshape_138379C0 npts=24 sinterval=3600 mult=(file=./loadshape\014\138379C0.csv)
New Loadshape.loadshape_138380C0 npts=24 sinterval=3600 mult=(file=./loadshape\014\138380C0.csv)
New Loadshape.loadshape_138404C0 npts=24 sinterval=3600 mult=(file=./loadshape\014\138404C0.csv)
New Loadshape.loadshape_138405C0 npts=24 sinterval=3600 mult=(file=./loadshape\014\138405C0.csv)
New Loadshape.loadshape_138412C0 npts=24 sinterval=3600 mult=(file=./loadshape\014\138412C0.csv)
New Loadshape.loadshape_138413C0 npts=24 sinterval=3600 mult=(file=./loadshape\014\138413C0.csv)
New Loadshape.loadshape_138416C0 npts=24 sinterval=3600 mult=(file=./loadshape\014\138416C0.csv)
New Loadshape.loadshape_138464C0 npts=24 sinterval=3600 mult=(file=./loadshape\014\138464C0.csv)
New Loadshape.loadshape_138465C0 npts=24 sinterval=3600 mult=(file=./loadshape\014\138465C0.csv)
New Loadshape.loadshape_138466C0 npts=24 sinterval=3600 mult=(file=./loadshape\014\138466C0.csv)
New Loadshape.loadshape_138469C0 npts=24 sinterval=3600 mult=(file=./loadshape\014\138469C0.csv)
New Loadshape.loadshape_138470C0 npts=24 sinterval=3600 mult=(file=./loadshape\014\138470C0.csv)
New Loadshape.loadshape_138472C0 npts=24 sinterval=3600 mult=(file=./loadshape\014\138472C0.csv)
New Loadshape.loadshape_138560A0 npts=24 sinterval=3600 mult=(file=./loadshape\014\138560A0.csv)
New Loadshape.loadshape_138561A0 npts=24 sinterval=3600 mult=(file=./loadshape\014\138561A0.csv)
New Loadshape.loadshape_138562A0 npts=24 sinterval=3600 mult=(file=./loadshape\014\138562A0.csv)
New Loadshape.loadshape_138563A0 npts=24 sinterval=3600 mult=(file=./loadshape\014\138563A0.csv)
New Loadshape.loadshape_138564A0 npts=24 sinterval=3600 mult=(file=./loadshape\014\138564A0.csv)
New Loadshape.loadshape_138565A0 npts=24 sinterval=3600 mult=(file=./loadshape\014\138565A0.csv)
New Loadshape.loadshape_138566A0 npts=24 sinterval=3600 mult=(file=./loadshape\014\138566A0.csv)
New Loadshape.loadshape_138567A0 npts=24 sinterval=3600 mult=(file=./loadshape\014\138567A0.csv)
New Loadshape.loadshape_138569A0 npts=24 sinterval=3600 mult=(file=./loadshape\014\138569A0.csv)
New Loadshape.loadshape_138570A0 npts=24 sinterval=3600 mult=(file=./loadshape\014\138570A0.csv)
New Loadshape.loadshape_138571A0 npts=24 sinterval=3600 mult=(file=./loadshape\014\138571A0.csv)
New Loadshape.loadshape_138573A0 npts=24 sinterval=3600 mult=(file=./loadshape\014\138573A0.csv)
New Loadshape.loadshape_138574A0 npts=24 sinterval=3600 mult=(file=./loadshape\014\138574A0.csv)
New Loadshape.loadshape_138581A0 npts=24 sinterval=3600 mult=(file=./loadshape\014\138581A0.csv)
New Loadshape.loadshape_138585C0 npts=24 sinterval=3600 mult=(file=./loadshape\014\138585C0.csv)
New Loadshape.loadshape_138586C0 npts=24 sinterval=3600 mult=(file=./loadshape\014\138586C0.csv)
New Loadshape.loadshape_138641C0 npts=24 sinterval=3600 mult=(file=./loadshape\014\138641C0.csv)
New Loadshape.loadshape_138642A0 npts=24 sinterval=3600 mult=(file=./loadshape\014\138642A0.csv)
New Loadshape.loadshape_138644A0 npts=24 sinterval=3600 mult=(file=./loadshape\014\138644A0.csv)
New Loadshape.loadshape_138645B0 npts=24 sinterval=3600 mult=(file=./loadshape\014\138645B0.csv)
New Loadshape.loadshape_138646A0 npts=24 sinterval=3600 mult=(file=./loadshape\014\138646A0.csv)
New Loadshape.loadshape_138647C0 npts=24 sinterval=3600 mult=(file=./loadshape\014\138647C0.csv)
New Loadshape.loadshape_138649A0 npts=24 sinterval=3600 mult=(file=./loadshape\014\138649A0.csv)
New Loadshape.loadshape_138650C0 npts=24 sinterval=3600 mult=(file=./loadshape\014\138650C0.csv)
New Loadshape.loadshape_138651C0 npts=24 sinterval=3600 mult=(file=./loadshape\014\138651C0.csv)
New Loadshape.loadshape_138652C0 npts=24 sinterval=3600 mult=(file=./loadshape\014\138652C0.csv)
New Loadshape.loadshape_138655A0 npts=24 sinterval=3600 mult=(file=./loadshape\014\138655A0.csv)
New Loadshape.loadshape_138679A0 npts=24 sinterval=3600 mult=(file=./loadshape\014\138679A0.csv)
New Loadshape.loadshape_138680A0 npts=24 sinterval=3600 mult=(file=./loadshape\014\138680A0.csv)
New Loadshape.loadshape_138684A0 npts=24 sinterval=3600 mult=(file=./loadshape\014\138684A0.csv)
New Loadshape.loadshape_138685A0 npts=24 sinterval=3600 mult=(file=./loadshape\014\138685A0.csv)
New Loadshape.loadshape_138716C0 npts=24 sinterval=3600 mult=(file=./loadshape\014\138716C0.csv)
New Loadshape.loadshape_138717C0 npts=24 sinterval=3600 mult=(file=./loadshape\014\138717C0.csv)
New Loadshape.loadshape_138718C0 npts=24 sinterval=3600 mult=(file=./loadshape\014\138718C0.csv)
New Loadshape.loadshape_138719A0 npts=24 sinterval=3600 mult=(file=./loadshape\014\138719A0.csv)
New Loadshape.loadshape_138720A0 npts=24 sinterval=3600 mult=(file=./loadshape\014\138720A0.csv)
New Loadshape.loadshape_138751B0 npts=24 sinterval=3600 mult=(file=./loadshape\014\138751B0.csv)
New Loadshape.loadshape_138752B0 npts=24 sinterval=3600 mult=(file=./loadshape\014\138752B0.csv)
New Loadshape.loadshape_138753B0 npts=24 sinterval=3600 mult=(file=./loadshape\014\138753B0.csv)
New Loadshape.loadshape_138754B0 npts=24 sinterval=3600 mult=(file=./loadshape\014\138754B0.csv)
New Loadshape.loadshape_138755B0 npts=24 sinterval=3600 mult=(file=./loadshape\014\138755B0.csv)
New Loadshape.loadshape_138769A0 npts=24 sinterval=3600 mult=(file=./loadshape\014\138769A0.csv)
New Loadshape.loadshape_138770A0 npts=24 sinterval=3600 mult=(file=./loadshape\014\138770A0.csv)
New Loadshape.loadshape_138771A0 npts=24 sinterval=3600 mult=(file=./loadshape\014\138771A0.csv)
New Loadshape.loadshape_138776C0 npts=24 sinterval=3600 mult=(file=./loadshape\014\138776C0.csv)
New Loadshape.loadshape_138796B0 npts=24 sinterval=3600 mult=(file=./loadshape\014\138796B0.csv)
New Loadshape.loadshape_138797B0 npts=24 sinterval=3600 mult=(file=./loadshape\014\138797B0.csv)
New Loadshape.loadshape_138798B0 npts=24 sinterval=3600 mult=(file=./loadshape\014\138798B0.csv)
New Loadshape.loadshape_157715B0 npts=24 sinterval=3600 mult=(file=./loadshape\014\157715B0.csv)
New Loadshape.loadshape_157716B0 npts=24 sinterval=3600 mult=(file=./loadshape\014\157716B0.csv)
New Loadshape.loadshape_157717B0 npts=24 sinterval=3600 mult=(file=./loadshape\014\157717B0.csv)
New Loadshape.loadshape_157718B0 npts=24 sinterval=3600 mult=(file=./loadshape\014\157718B0.csv)
New Loadshape.loadshape_207286C0 npts=24 sinterval=3600 mult=(file=./loadshape\014\207286C0.csv)
New Loadshape.loadshape_207287B0 npts=24 sinterval=3600 mult=(file=./loadshape\014\207287B0.csv)
New Loadshape.loadshape_207288B0 npts=24 sinterval=3600 mult=(file=./loadshape\014\207288B0.csv)
New Loadshape.loadshape_207290A0 npts=24 sinterval=3600 mult=(file=./loadshape\014\207290A0.csv)
New Loadshape.loadshape_207291C0 npts=24 sinterval=3600 mult=(file=./loadshape\014\207291C0.csv)
New Loadshape.loadshape_207292C0 npts=24 sinterval=3600 mult=(file=./loadshape\014\207292C0.csv)
New Loadshape.loadshape_218472A0 npts=24 sinterval=3600 mult=(file=./loadshape\014\218472A0.csv)
New Loadshape.loadshape_218473A0 npts=24 sinterval=3600 mult=(file=./loadshape\014\218473A0.csv)
New Loadshape.loadshape_218474A0 npts=24 sinterval=3600 mult=(file=./loadshape\014\218474A0.csv)
New Loadshape.loadshape_218475A0 npts=24 sinterval=3600 mult=(file=./loadshape\014\218475A0.csv)
New Loadshape.loadshape_223655C0 npts=24 sinterval=3600 mult=(file=./loadshape\014\223655C0.csv)
New Loadshape.loadshape_223658A0 npts=24 sinterval=3600 mult=(file=./loadshape\014\223658A0.csv)
New Loadshape.loadshape_223660C0 npts=24 sinterval=3600 mult=(file=./loadshape\014\223660C0.csv)
New Loadshape.loadshape_223661C0 npts=24 sinterval=3600 mult=(file=./loadshape\014\223661C0.csv)
New Loadshape.loadshape_223662C0 npts=24 sinterval=3600 mult=(file=./loadshape\014\223662C0.csv)
New Loadshape.loadshape_223663C0 npts=24 sinterval=3600 mult=(file=./loadshape\014\223663C0.csv)
New Loadshape.loadshape_247036C0 npts=24 sinterval=3600 mult=(file=./loadshape\014\247036C0.csv)
New Loadshape.loadshape_247056A0 npts=24 sinterval=3600 mult=(file=./loadshape\014\247056A0.csv)
New Loadshape.loadshape_247057A0 npts=24 sinterval=3600 mult=(file=./loadshape\014\247057A0.csv)
New Loadshape.loadshape_247058A0 npts=24 sinterval=3600 mult=(file=./loadshape\014\247058A0.csv)
New Loadshape.loadshape_247059A0 npts=24 sinterval=3600 mult=(file=./loadshape\014\247059A0.csv)
New Loadshape.loadshape_247060A0 npts=24 sinterval=3600 mult=(file=./loadshape\014\247060A0.csv)
New Loadshape.loadshape_247061A0 npts=24 sinterval=3600 mult=(file=./loadshape\014\247061A0.csv)
New Loadshape.loadshape_247084B0 npts=24 sinterval=3600 mult=(file=./loadshape\014\247084B0.csv)
New Loadshape.loadshape_247100B0 npts=24 sinterval=3600 mult=(file=./loadshape\014\247100B0.csv)
New Loadshape.loadshape_247105B0 npts=24 sinterval=3600 mult=(file=./loadshape\014\247105B0.csv)
New Loadshape.loadshape_247122B0 npts=24 sinterval=3600 mult=(file=./loadshape\014\247122B0.csv)
New Loadshape.loadshape_247126B0 npts=24 sinterval=3600 mult=(file=./loadshape\014\247126B0.csv)
New Loadshape.loadshape_247160B0 npts=24 sinterval=3600 mult=(file=./loadshape\014\247160B0.csv)
New Loadshape.loadshape_247162B0 npts=24 sinterval=3600 mult=(file=./loadshape\014\247162B0.csv)
New Loadshape.loadshape_247164B0 npts=24 sinterval=3600 mult=(file=./loadshape\014\247164B0.csv)
New Loadshape.loadshape_247170B0 npts=24 sinterval=3600 mult=(file=./loadshape\014\247170B0.csv)
New Loadshape.loadshape_247171B0 npts=24 sinterval=3600 mult=(file=./loadshape\014\247171B0.csv)
New Loadshape.loadshape_247184C0 npts=24 sinterval=3600 mult=(file=./loadshape\014\247184C0.csv)
New Loadshape.loadshape_247185B0 npts=24 sinterval=3600 mult=(file=./loadshape\014\247185B0.csv)
New Loadshape.loadshape_251828B0 npts=24 sinterval=3600 mult=(file=./loadshape\014\251828B0.csv)
New Loadshape.loadshape_251855C0 npts=24 sinterval=3600 mult=(file=./loadshape\014\251855C0.csv)
New Loadshape.loadshape_251856C0 npts=24 sinterval=3600 mult=(file=./loadshape\014\251856C0.csv)
New Loadshape.loadshape_251857C0 npts=24 sinterval=3600 mult=(file=./loadshape\014\251857C0.csv)
New Loadshape.loadshape_251858C0 npts=24 sinterval=3600 mult=(file=./loadshape\014\251858C0.csv)
New Loadshape.loadshape_251859C0 npts=24 sinterval=3600 mult=(file=./loadshape\014\251859C0.csv)
New Loadshape.loadshape_251862C0 npts=24 sinterval=3600 mult=(file=./loadshape\014\251862C0.csv)
New Loadshape.loadshape_251863C0 npts=24 sinterval=3600 mult=(file=./loadshape\014\251863C0.csv)
New Loadshape.loadshape_251865C0 npts=24 sinterval=3600 mult=(file=./loadshape\014\251865C0.csv)
New Loadshape.loadshape_251867C0 npts=24 sinterval=3600 mult=(file=./loadshape\014\251867C0.csv)
New Loadshape.loadshape_260457B0 npts=24 sinterval=3600 mult=(file=./loadshape\014\260457B0.csv)
New Loadshape.loadshape_260458B0 npts=24 sinterval=3600 mult=(file=./loadshape\014\260458B0.csv)
New Loadshape.loadshape_260461B0 npts=24 sinterval=3600 mult=(file=./loadshape\014\260461B0.csv)
New Loadshape.loadshape_260463B0 npts=24 sinterval=3600 mult=(file=./loadshape\014\260463B0.csv)
New Loadshape.loadshape_260464A0 npts=24 sinterval=3600 mult=(file=./loadshape\014\260464A0.csv)
New Loadshape.loadshape_260467A0 npts=24 sinterval=3600 mult=(file=./loadshape\014\260467A0.csv)
New Loadshape.loadshape_260473A0 npts=24 sinterval=3600 mult=(file=./loadshape\014\260473A0.csv)
New Loadshape.loadshape_260474A0 npts=24 sinterval=3600 mult=(file=./loadshape\014\260474A0.csv)
New Loadshape.loadshape_260475A0 npts=24 sinterval=3600 mult=(file=./loadshape\014\260475A0.csv)
New Loadshape.loadshape_260476A0 npts=24 sinterval=3600 mult=(file=./loadshape\014\260476A0.csv)
New Loadshape.loadshape_260479A0 npts=24 sinterval=3600 mult=(file=./loadshape\014\260479A0.csv)
New Loadshape.loadshape_260480C0 npts=24 sinterval=3600 mult=(file=./loadshape\014\260480C0.csv)
New Loadshape.loadshape_260481C0 npts=24 sinterval=3600 mult=(file=./loadshape\014\260481C0.csv)
New Loadshape.loadshape_260484A0 npts=24 sinterval=3600 mult=(file=./loadshape\014\260484A0.csv)
New Loadshape.loadshape_260487A0 npts=24 sinterval=3600 mult=(file=./loadshape\014\260487A0.csv)
New Loadshape.loadshape_260488A0 npts=24 sinterval=3600 mult=(file=./loadshape\014\260488A0.csv)
New Loadshape.loadshape_260491C0 npts=24 sinterval=3600 mult=(file=./loadshape\014\260491C0.csv)
New Loadshape.loadshape_260494B0 npts=24 sinterval=3600 mult=(file=./loadshape\014\260494B0.csv)
New Loadshape.loadshape_260495B0 npts=24 sinterval=3600 mult=(file=./loadshape\014\260495B0.csv)
New Loadshape.loadshape_260496B0 npts=24 sinterval=3600 mult=(file=./loadshape\014\260496B0.csv)
New Loadshape.loadshape_260500B0 npts=24 sinterval=3600 mult=(file=./loadshape\014\260500B0.csv)
New Loadshape.loadshape_260501B0 npts=24 sinterval=3600 mult=(file=./loadshape\014\260501B0.csv)
New Loadshape.loadshape_260502B0 npts=24 sinterval=3600 mult=(file=./loadshape\014\260502B0.csv)
New Loadshape.loadshape_260503B0 npts=24 sinterval=3600 mult=(file=./loadshape\014\260503B0.csv)
New Loadshape.loadshape_260505C0 npts=24 sinterval=3600 mult=(file=./loadshape\014\260505C0.csv)
New Loadshape.loadshape_260508A0 npts=24 sinterval=3600 mult=(file=./loadshape\014\260508A0.csv)
New Loadshape.loadshape_260511C0 npts=24 sinterval=3600 mult=(file=./loadshape\014\260511C0.csv)
New Loadshape.loadshape_260513C0 npts=24 sinterval=3600 mult=(file=./loadshape\014\260513C0.csv)
New Loadshape.loadshape_260514C0 npts=24 sinterval=3600 mult=(file=./loadshape\014\260514C0.csv)
New Loadshape.loadshape_260515A0 npts=24 sinterval=3600 mult=(file=./loadshape\014\260515A0.csv)
New Loadshape.loadshape_260517C0 npts=24 sinterval=3600 mult=(file=./loadshape\014\260517C0.csv)
New Loadshape.loadshape_260518C0 npts=24 sinterval=3600 mult=(file=./loadshape\014\260518C0.csv)
New Loadshape.loadshape_260520B0 npts=24 sinterval=3600 mult=(file=./loadshape\014\260520B0.csv)
New Loadshape.loadshape_260521B0 npts=24 sinterval=3600 mult=(file=./loadshape\014\260521B0.csv)
New Loadshape.loadshape_260527B0 npts=24 sinterval=3600 mult=(file=./loadshape\014\260527B0.csv)
New Loadshape.loadshape_260528C0 npts=24 sinterval=3600 mult=(file=./loadshape\014\260528C0.csv)
New Loadshape.loadshape_260529C0 npts=24 sinterval=3600 mult=(file=./loadshape\014\260529C0.csv)
New Loadshape.loadshape_260532C0 npts=24 sinterval=3600 mult=(file=./loadshape\014\260532C0.csv)
New Loadshape.loadshape_260535C0 npts=24 sinterval=3600 mult=(file=./loadshape\014\260535C0.csv)
New Loadshape.loadshape_260542A0 npts=24 sinterval=3600 mult=(file=./loadshape\014\260542A0.csv)
New Loadshape.loadshape_260543C0 npts=24 sinterval=3600 mult=(file=./loadshape\014\260543C0.csv)
New Loadshape.loadshape_260551C0 npts=24 sinterval=3600 mult=(file=./loadshape\014\260551C0.csv)
New Loadshape.loadshape_260552A0 npts=24 sinterval=3600 mult=(file=./loadshape\014\260552A0.csv)
New Loadshape.loadshape_260553C0 npts=24 sinterval=3600 mult=(file=./loadshape\014\260553C0.csv)
New Loadshape.loadshape_260554C0 npts=24 sinterval=3600 mult=(file=./loadshape\014\260554C0.csv)
New Loadshape.loadshape_260555A0 npts=24 sinterval=3600 mult=(file=./loadshape\014\260555A0.csv)
New Loadshape.loadshape_260558C0 npts=24 sinterval=3600 mult=(file=./loadshape\014\260558C0.csv)
New Loadshape.loadshape_260561C0 npts=24 sinterval=3600 mult=(file=./loadshape\014\260561C0.csv)
New Loadshape.loadshape_260562A0 npts=24 sinterval=3600 mult=(file=./loadshape\014\260562A0.csv)
New Loadshape.loadshape_260567C0 npts=24 sinterval=3600 mult=(file=./loadshape\014\260567C0.csv)
New Loadshape.loadshape_260568C0 npts=24 sinterval=3600 mult=(file=./loadshape\014\260568C0.csv)
New Loadshape.loadshape_260569C0 npts=24 sinterval=3600 mult=(file=./loadshape\014\260569C0.csv)
New Loadshape.loadshape_260572C0 npts=24 sinterval=3600 mult=(file=./loadshape\014\260572C0.csv)
New Loadshape.loadshape_260573C0 npts=24 sinterval=3600 mult=(file=./loadshape\014\260573C0.csv)
New Loadshape.loadshape_260574C0 npts=24 sinterval=3600 mult=(file=./loadshape\014\260574C0.csv)
New Loadshape.loadshape_260575B0 npts=24 sinterval=3600 mult=(file=./loadshape\014\260575B0.csv)
New Loadshape.loadshape_260576C0 npts=24 sinterval=3600 mult=(file=./loadshape\014\260576C0.csv)
New Loadshape.loadshape_260577C0 npts=24 sinterval=3600 mult=(file=./loadshape\014\260577C0.csv)
New Loadshape.loadshape_260581C0 npts=24 sinterval=3600 mult=(file=./loadshape\014\260581C0.csv)
New Loadshape.loadshape_260586B0 npts=24 sinterval=3600 mult=(file=./loadshape\014\260586B0.csv)
New Loadshape.loadshape_260589B0 npts=24 sinterval=3600 mult=(file=./loadshape\014\260589B0.csv)
New Loadshape.loadshape_260590B0 npts=24 sinterval=3600 mult=(file=./loadshape\014\260590B0.csv)
New Loadshape.loadshape_260591B0 npts=24 sinterval=3600 mult=(file=./loadshape\014\260591B0.csv)
New Loadshape.loadshape_260594A0 npts=24 sinterval=3600 mult=(file=./loadshape\014\260594A0.csv)
New Loadshape.loadshape_260595A0 npts=24 sinterval=3600 mult=(file=./loadshape\014\260595A0.csv)
New Loadshape.loadshape_260595B0 npts=24 sinterval=3600 mult=(file=./loadshape\014\260595B0.csv)
New Loadshape.loadshape_260595C0 npts=24 sinterval=3600 mult=(file=./loadshape\014\260595C0.csv)
New Loadshape.loadshape_260598A0 npts=24 sinterval=3600 mult=(file=./loadshape\014\260598A0.csv)
New Loadshape.loadshape_260601C0 npts=24 sinterval=3600 mult=(file=./loadshape\014\260601C0.csv)
New Loadshape.loadshape_260602B0 npts=24 sinterval=3600 mult=(file=./loadshape\014\260602B0.csv)
New Loadshape.loadshape_260605A0 npts=24 sinterval=3600 mult=(file=./loadshape\014\260605A0.csv)
New Loadshape.loadshape_260607B0 npts=24 sinterval=3600 mult=(file=./loadshape\014\260607B0.csv)
New Loadshape.loadshape_260620C0 npts=24 sinterval=3600 mult=(file=./loadshape\014\260620C0.csv)
New Loadshape.loadshape_260621C0 npts=24 sinterval=3600 mult=(file=./loadshape\014\260621C0.csv)
New Loadshape.loadshape_260622C0 npts=24 sinterval=3600 mult=(file=./loadshape\014\260622C0.csv)
New Loadshape.loadshape_260624C0 npts=24 sinterval=3600 mult=(file=./loadshape\014\260624C0.csv)
New Loadshape.loadshape_260625C0 npts=24 sinterval=3600 mult=(file=./loadshape\014\260625C0.csv)
New Loadshape.loadshape_260627A0 npts=24 sinterval=3600 mult=(file=./loadshape\014\260627A0.csv)
New Loadshape.loadshape_260630B0 npts=24 sinterval=3600 mult=(file=./loadshape\014\260630B0.csv)
New Loadshape.loadshape_260631A0 npts=24 sinterval=3600 mult=(file=./loadshape\014\260631A0.csv)
New Loadshape.loadshape_260632A0 npts=24 sinterval=3600 mult=(file=./loadshape\014\260632A0.csv)
New Loadshape.loadshape_260634A0 npts=24 sinterval=3600 mult=(file=./loadshape\014\260634A0.csv)
New Loadshape.loadshape_260637C0 npts=24 sinterval=3600 mult=(file=./loadshape\014\260637C0.csv)
New Loadshape.loadshape_260638C0 npts=24 sinterval=3600 mult=(file=./loadshape\014\260638C0.csv)
New Loadshape.loadshape_260639C0 npts=24 sinterval=3600 mult=(file=./loadshape\014\260639C0.csv)
New Loadshape.loadshape_260640C0 npts=24 sinterval=3600 mult=(file=./loadshape\014\260640C0.csv)
New Loadshape.loadshape_260641B0 npts=24 sinterval=3600 mult=(file=./loadshape\014\260641B0.csv)
New Loadshape.loadshape_260643A0 npts=24 sinterval=3600 mult=(file=./loadshape\014\260643A0.csv)
New Loadshape.loadshape_260647A0 npts=24 sinterval=3600 mult=(file=./loadshape\014\260647A0.csv)
New Loadshape.loadshape_260648A0 npts=24 sinterval=3600 mult=(file=./loadshape\014\260648A0.csv)
New Loadshape.loadshape_260650A0 npts=24 sinterval=3600 mult=(file=./loadshape\014\260650A0.csv)
New Loadshape.loadshape_262075C0 npts=24 sinterval=3600 mult=(file=./loadshape\014\262075C0.csv)
New Loadshape.loadshape_274903C0 npts=24 sinterval=3600 mult=(file=./loadshape\014\274903C0.csv)
New Loadshape.loadshape_274985C0 npts=24 sinterval=3600 mult=(file=./loadshape\014\274985C0.csv)
New Loadshape.loadshape_274986C0 npts=24 sinterval=3600 mult=(file=./loadshape\014\274986C0.csv)
New Loadshape.loadshape_274987C0 npts=24 sinterval=3600 mult=(file=./loadshape\014\274987C0.csv)
New Loadshape.loadshape_274988C0 npts=24 sinterval=3600 mult=(file=./loadshape\014\274988C0.csv)
New Loadshape.loadshape_274992C0 npts=24 sinterval=3600 mult=(file=./loadshape\014\274992C0.csv)
New Loadshape.loadshape_274994C0 npts=24 sinterval=3600 mult=(file=./loadshape\014\274994C0.csv)
New Loadshape.loadshape_274997C0 npts=24 sinterval=3600 mult=(file=./loadshape\014\274997C0.csv)
New Loadshape.loadshape_274999C0 npts=24 sinterval=3600 mult=(file=./loadshape\014\274999C0.csv)
New Loadshape.loadshape_275000C0 npts=24 sinterval=3600 mult=(file=./loadshape\014\275000C0.csv)
New Loadshape.loadshape_275001C0 npts=24 sinterval=3600 mult=(file=./loadshape\014\275001C0.csv)
New Loadshape.loadshape_275002C0 npts=24 sinterval=3600 mult=(file=./loadshape\014\275002C0.csv)
New Loadshape.loadshape_275007C0 npts=24 sinterval=3600 mult=(file=./loadshape\014\275007C0.csv)
New Loadshape.loadshape_275008C0 npts=24 sinterval=3600 mult=(file=./loadshape\014\275008C0.csv)
New Loadshape.loadshape_275247B0 npts=24 sinterval=3600 mult=(file=./loadshape\014\275247B0.csv)
New Loadshape.loadshape_275248B0 npts=24 sinterval=3600 mult=(file=./loadshape\014\275248B0.csv)
New Loadshape.loadshape_293422C0 npts=24 sinterval=3600 mult=(file=./loadshape\014\293422C0.csv)
New Loadshape.loadshape_293423B0 npts=24 sinterval=3600 mult=(file=./loadshape\014\293423B0.csv)
New Loadshape.loadshape_293424C0 npts=24 sinterval=3600 mult=(file=./loadshape\014\293424C0.csv)
New Loadshape.loadshape_293425A0 npts=24 sinterval=3600 mult=(file=./loadshape\014\293425A0.csv)
New Loadshape.loadshape_293427C0 npts=24 sinterval=3600 mult=(file=./loadshape\014\293427C0.csv)
New Loadshape.loadshape_293471A0 npts=24 sinterval=3600 mult=(file=./loadshape\014\293471A0.csv)
New Loadshape.loadshape_293471B0 npts=24 sinterval=3600 mult=(file=./loadshape\014\293471B0.csv)
New Loadshape.loadshape_293471C0 npts=24 sinterval=3600 mult=(file=./loadshape\014\293471C0.csv)
New Loadshape.loadshape_293480A0 npts=24 sinterval=3600 mult=(file=./loadshape\014\293480A0.csv)
New Loadshape.loadshape_293483A0 npts=24 sinterval=3600 mult=(file=./loadshape\014\293483A0.csv)
New Loadshape.loadshape_293486C0 npts=24 sinterval=3600 mult=(file=./loadshape\014\293486C0.csv)
New Loadshape.loadshape_293487B0 npts=24 sinterval=3600 mult=(file=./loadshape\014\293487B0.csv)
New Loadshape.loadshape_293490C0 npts=24 sinterval=3600 mult=(file=./loadshape\014\293490C0.csv)
New Loadshape.loadshape_293492C0 npts=24 sinterval=3600 mult=(file=./loadshape\014\293492C0.csv)
New Loadshape.loadshape_293518B0 npts=24 sinterval=3600 mult=(file=./loadshape\014\293518B0.csv)
New Loadshape.loadshape_293519B0 npts=24 sinterval=3600 mult=(file=./loadshape\014\293519B0.csv)
New Loadshape.loadshape_293521A0 npts=24 sinterval=3600 mult=(file=./loadshape\014\293521A0.csv)
New Loadshape.loadshape_293521B0 npts=24 sinterval=3600 mult=(file=./loadshape\014\293521B0.csv)
New Loadshape.loadshape_293521C0 npts=24 sinterval=3600 mult=(file=./loadshape\014\293521C0.csv)
New Loadshape.loadshape_293522A0 npts=24 sinterval=3600 mult=(file=./loadshape\014\293522A0.csv)
New Loadshape.loadshape_293523A0 npts=24 sinterval=3600 mult=(file=./loadshape\014\293523A0.csv)
New Loadshape.loadshape_293591A0 npts=24 sinterval=3600 mult=(file=./loadshape\014\293591A0.csv)
New Loadshape.loadshape_293592A0 npts=24 sinterval=3600 mult=(file=./loadshape\014\293592A0.csv)
New Loadshape.loadshape_293608C0 npts=24 sinterval=3600 mult=(file=./loadshape\014\293608C0.csv)
New Loadshape.loadshape_293609C0 npts=24 sinterval=3600 mult=(file=./loadshape\014\293609C0.csv)
New Loadshape.loadshape_293644A0 npts=24 sinterval=3600 mult=(file=./loadshape\014\293644A0.csv)
New Loadshape.loadshape_293645A0 npts=24 sinterval=3600 mult=(file=./loadshape\014\293645A0.csv)
New Loadshape.loadshape_293652A0 npts=24 sinterval=3600 mult=(file=./loadshape\014\293652A0.csv)
New Loadshape.loadshape_293652B0 npts=24 sinterval=3600 mult=(file=./loadshape\014\293652B0.csv)
New Loadshape.loadshape_293652C0 npts=24 sinterval=3600 mult=(file=./loadshape\014\293652C0.csv)
New Loadshape.loadshape_293655A0 npts=24 sinterval=3600 mult=(file=./loadshape\014\293655A0.csv)
New Loadshape.loadshape_293655B0 npts=24 sinterval=3600 mult=(file=./loadshape\014\293655B0.csv)
New Loadshape.loadshape_293655C0 npts=24 sinterval=3600 mult=(file=./loadshape\014\293655C0.csv)
New Loadshape.loadshape_293656B0 npts=24 sinterval=3600 mult=(file=./loadshape\014\293656B0.csv)
New Loadshape.loadshape_293657B0 npts=24 sinterval=3600 mult=(file=./loadshape\014\293657B0.csv)
New Loadshape.loadshape_293658C0 npts=24 sinterval=3600 mult=(file=./loadshape\014\293658C0.csv)
New Loadshape.loadshape_293659C0 npts=24 sinterval=3600 mult=(file=./loadshape\014\293659C0.csv)
New Loadshape.loadshape_293660B0 npts=24 sinterval=3600 mult=(file=./loadshape\014\293660B0.csv)
New Loadshape.loadshape_293663C0 npts=24 sinterval=3600 mult=(file=./loadshape\014\293663C0.csv)
New Loadshape.loadshape_293664A0 npts=24 sinterval=3600 mult=(file=./loadshape\014\293664A0.csv)
New Loadshape.loadshape_293664B0 npts=24 sinterval=3600 mult=(file=./loadshape\014\293664B0.csv)
New Loadshape.loadshape_293664C0 npts=24 sinterval=3600 mult=(file=./loadshape\014\293664C0.csv)
New Loadshape.loadshape_293665C0 npts=24 sinterval=3600 mult=(file=./loadshape\014\293665C0.csv)
New Loadshape.loadshape_293666C0 npts=24 sinterval=3600 mult=(file=./loadshape\014\293666C0.csv)
New Loadshape.loadshape_293667A0 npts=24 sinterval=3600 mult=(file=./loadshape\014\293667A0.csv)
New Loadshape.loadshape_293668A0 npts=24 sinterval=3600 mult=(file=./loadshape\014\293668A0.csv)
New Loadshape.loadshape_293672A0 npts=24 sinterval=3600 mult=(file=./loadshape\014\293672A0.csv)
New Loadshape.loadshape_293673A0 npts=24 sinterval=3600 mult=(file=./loadshape\014\293673A0.csv)
New Loadshape.loadshape_293681A0 npts=24 sinterval=3600 mult=(file=./loadshape\014\293681A0.csv)
New Loadshape.loadshape_294786C0 npts=24 sinterval=3600 mult=(file=./loadshape\014\294786C0.csv)
New Loadshape.loadshape_294787A0 npts=24 sinterval=3600 mult=(file=./loadshape\014\294787A0.csv)
New Loadshape.loadshape_294788A0 npts=24 sinterval=3600 mult=(file=./loadshape\014\294788A0.csv)
New Loadshape.loadshape_294789A0 npts=24 sinterval=3600 mult=(file=./loadshape\014\294789A0.csv)
New Loadshape.loadshape_294809A0 npts=24 sinterval=3600 mult=(file=./loadshape\014\294809A0.csv)
New Loadshape.loadshape_294810A0 npts=24 sinterval=3600 mult=(file=./loadshape\014\294810A0.csv)
New Loadshape.loadshape_294812A0 npts=24 sinterval=3600 mult=(file=./loadshape\014\294812A0.csv)
New Loadshape.loadshape_294842A0 npts=24 sinterval=3600 mult=(file=./loadshape\014\294842A0.csv)
New Loadshape.loadshape_294843A0 npts=24 sinterval=3600 mult=(file=./loadshape\014\294843A0.csv)
New Loadshape.loadshape_294844A0 npts=24 sinterval=3600 mult=(file=./loadshape\014\294844A0.csv)
New Loadshape.loadshape_294845A0 npts=24 sinterval=3600 mult=(file=./loadshape\014\294845A0.csv)
New Loadshape.loadshape_302367B0 npts=24 sinterval=3600 mult=(file=./loadshape\014\302367B0.csv)
New Loadshape.loadshape_302368B0 npts=24 sinterval=3600 mult=(file=./loadshape\014\302368B0.csv)
New Loadshape.loadshape_302369B0 npts=24 sinterval=3600 mult=(file=./loadshape\014\302369B0.csv)
New Loadshape.loadshape_302370B0 npts=24 sinterval=3600 mult=(file=./loadshape\014\302370B0.csv)
New Loadshape.loadshape_302373B0 npts=24 sinterval=3600 mult=(file=./loadshape\014\302373B0.csv)
New Loadshape.loadshape_302374B0 npts=24 sinterval=3600 mult=(file=./loadshape\014\302374B0.csv)
New Loadshape.loadshape_302375B0 npts=24 sinterval=3600 mult=(file=./loadshape\014\302375B0.csv)
New Loadshape.loadshape_302392A0 npts=24 sinterval=3600 mult=(file=./loadshape\014\302392A0.csv)
New Loadshape.loadshape_302400A0 npts=24 sinterval=3600 mult=(file=./loadshape\014\302400A0.csv)
New Loadshape.loadshape_302402A0 npts=24 sinterval=3600 mult=(file=./loadshape\014\302402A0.csv)
New Loadshape.loadshape_302405A0 npts=24 sinterval=3600 mult=(file=./loadshape\014\302405A0.csv)